test/data/matpower/case39_acdc_SPMACDC_det.m
%% MATPOWER Case Format : Version 2
function mpc = case39_acdc
mpc.version = '2';

%column_names% pa dst pb 
mpc.sdata = {
	2.0	'Beta'	2.0
	0.0	'Normal'	0.0
};
%%-----  Power Flow Data  -----%%
%% system MVA base
mpc.baseMVA = 100;
%% bus data
%    bus_i    type    Pd    Qd    Gs    Bs    area    Vm    Va    baseKV    zone    Vmax    Vmin
mpc.bus = [
	1	1	97.6	44.2	0.0	0.0	2	1.0393836	-13.536602000000002	345.0	1	1.06	0.94				
	2	1	0.0	0.0	0.0	0.0	2	1.0484941	-9.785266600000002	345.0	1	1.06	0.94				
	3	1	322.0	2.4	0.0	0.0	2	1.0307077	-12.276384	345.0	1	1.06	0.94				
	4	1	500.0	184.0	0.0	0.0	1	1.00446	-12.626734	345.0	1	1.06	0.94				
	5	1	0.0	0.0	0.0	0.0	1	1.0060063	-11.192339000000002	345.0	1	1.06	0.94				
	6	1	0.0	0.0	0.0	0.0	1	1.0082256	-10.40833	345.0	1	1.06	0.94				
	7	1	233.8	84.0	0.0	0.0	1	0.99839728	-12.755626	345.0	1	1.06	0.94				
	8	1	522.0	176.6	0.0	0.0	1	0.99787232	-13.335844	345.0	1	1.06	0.94				
	9	1	6.5	-66.6	0.0	0.0	1	1.038332	-14.178442	345.0	1	1.06	0.94				
	10	1	0.0	0.0	0.0	0.0	1	1.0178431	-8.170875	345.0	1	1.06	0.94				
	11	1	0.0	0.0	0.0	0.0	1	1.0133858	-8.9369663	345.0	1	1.06	0.94				
	12	1	8.53	88.0	0.0	0.0	1	1.000815	-8.9988236	345.0	1	1.06	0.94				
	13	1	0.0	0.0	0.0	0.0	1	1.014923	-8.9299272	345.0	1	1.06	0.94				
	14	1	0.0	0.0	0.0	0.0	1	1.012319	-10.715295	345.0	1	1.06	0.94				
	15	1	320.0	153.0	0.0	0.0	3	1.0161854	-11.345399	345.0	1	1.06	0.94				
	16	1	329.0	32.3	0.0	0.0	3	1.0325203	-10.033348	345.0	1	1.06	0.94				
	17	1	0.0	0.0	0.0	0.0	2	1.0342365	-11.116436	345.0	1	1.06	0.94				
	18	1	158.0	30.0	0.0	0.0	2	1.0315726	-11.986168	345.0	1	1.06	0.94				
	19	1	0.0	0.0	0.0	0.0	3	1.0501068	-5.4100729	345.0	1	1.06	0.94				
	20	1	680.0	103.0	0.0	0.0	3	0.99101054	-6.821178300000001	345.0	1	1.06	0.94				
	21	1	274.0	114.99999999999999	0.0	0.0	3	1.0323192	-7.628746100000001	345.0	1	1.06	0.94				
	22	1	0.0	0.0	0.0	0.0	3	1.0501427	-3.1831199	345.0	1	1.06	0.94				
	23	1	247.5	84.6	0.0	0.0	3	1.0451451	-3.3812763	345.0	1	1.06	0.94				
	24	1	308.6	-92.2	0.0	0.0	3	1.038001	-9.9137585	345.0	1	1.06	0.94				
	25	1	224.00000000000003	47.2	0.0	0.0	2	1.0576827	-8.369235400000003	345.0	1	1.06	0.94				
	26	1	139.0	17.0	0.0	0.0	2	1.0525613	-9.4387696	345.0	1	1.06	0.94				
	27	1	281.0	75.5	0.0	0.0	2	1.0383449	-11.362152	345.0	1	1.06	0.94				
	28	1	206.0	27.6	0.0	0.0	3	1.0503737	-5.9283592	345.0	1	1.06	0.94				
	29	1	283.5	26.899999999999995	0.0	0.0	3	1.0501149	-3.1698741	345.0	1	1.06	0.94				
	30	2	0.0	0.0	0.0	0.0	2	1.0499	-7.3704746000000005	345.0	1	1.06	0.94				
	31	3	9.2	4.6	0.0	0.0	1	0.982	0.0	345.0	1	1.06	0.94				
	32	2	0.0	0.0	0.0	0.0	1	0.9841	-0.18843740000000003	345.0	1	1.06	0.94				
	33	2	0.0	0.0	0.0	0.0	3	0.9972	-0.19317445	345.0	1	1.06	0.94				
	34	2	0.0	0.0	0.0	0.0	3	1.0123	-1.631119	345.0	1	1.06	0.94				
	35	2	0.0	0.0	0.0	0.0	3	1.0494	1.7765069	345.0	1	1.06	0.94				
	36	2	0.0	0.0	0.0	0.0	3	1.0636	4.4684374	345.0	1	1.06	0.94				
	37	2	0.0	0.0	0.0	0.0	2	1.0275	-1.5828988	345.0	1	1.06	0.94				
	38	2	0.0	0.0	0.0	0.0	3	1.0265	3.8928177	345.0	1	1.06	0.94				
	39	2	1104.0	250.0	0.0	0.0	1	1.03	-14.535256	345.0	1	1.06	0.94				
];

%% generator data
%    bus    Pg    Qg    Qmax    Qmin    Vg    mBase    status    Pmax    Pmin    Pc1    Pc2    Qc1min    Qc1max    Qc2min    Qc2max    ramp_agc    ramp_10    ramp_30    ramp_q    apf
mpc.gen = [
	30	250.0	161.762	400.0	140.0	1.0499	100.0	1	1040.0	0.0	0.0	0.0	0.0	0.0	0.0	0.0	0.0	0.0	0.0	0.0	0.0				
	31	677.871	221.574	300.0	-100.0	0.982	100.0	1	646.0	0.0	0.0	0.0	0.0	0.0	0.0	0.0	0.0	0.0	0.0	0.0	0.0				
	32	650.0	206.96500000000003	300.0	150.0	0.9841	100.0	1	725.0	0.0	0.0	0.0	0.0	0.0	0.0	0.0	0.0	0.0	0.0	0.0	0.0				
	33	632.0	108.29300000000002	250.0	0.0	0.9972	100.0	1	652.0	0.0	0.0	0.0	0.0	0.0	0.0	0.0	0.0	0.0	0.0	0.0	0.0				
	34	508.0	166.688	167.0	0.0	1.0123	100.0	1	508.0	0.0	0.0	0.0	0.0	0.0	0.0	0.0	0.0	0.0	0.0	0.0	0.0				
	35	650.0	210.661	300.0	-100.0	1.0494	100.0	1	687.0	0.0	0.0	0.0	0.0	0.0	0.0	0.0	0.0	0.0	0.0	0.0	0.0				
	36	560.0	100.16500000000002	240.0	0.0	1.0636	100.0	1	580.0	0.0	0.0	0.0	0.0	0.0	0.0	0.0	0.0	0.0	0.0	0.0	0.0				
	37	540.0	-1.36945	250.0	0.0	1.0275	100.0	1	564.0	0.0	0.0	0.0	0.0	0.0	0.0	0.0	0.0	0.0	0.0	0.0	0.0				
	38	830.0000000000001	21.7327	300.0	-150.0	1.0265	100.0	1	865.0	0.0	0.0	0.0	0.0	0.0	0.0	0.0	0.0	0.0	0.0	0.0	0.0				
	39	1000.0	78.4674	300.0	-100.0	1.03	100.0	1	1100.0	0.0	0.0	0.0	0.0	0.0	0.0	0.0	0.0	0.0	0.0	0.0	0.0				
];

%% branch data
%    f_bus    t_bus    r    x    b    rateA    rateB    rateC    ratio    angle    status    angmin    angmax
mpc.branch = [
	1	2	0.0035	0.0411	0.6987	600.0	600.0	600.0	0	0	1	-60.0001403060998	60.0001403060998								
	1	39	0.001	0.025	0.75	1000.0	1000.0	1000.0	0	0	1	-60.0001403060998	60.0001403060998								
	2	3	0.0013	0.0151	0.2572	500.0	500.0	500.0	0	0	1	-60.0001403060998	60.0001403060998								
	2	25	0.007	0.0086	0.146	500.0	500.0	500.0	0	0	1	-60.0001403060998	60.0001403060998								
	2	30	0.0	0.0181	0.0	900.0	900.0	2500.0	1.025	0.0	1	-60.0001403060998	60.0001403060998								
	3	4	0.0013	0.0213	0.2214	500.0	500.0	500.0	0	0	1	-60.0001403060998	60.0001403060998								
	3	18	0.0011	0.0133	0.2138	500.0	500.0	500.0	0	0	1	-60.0001403060998	60.0001403060998								
	4	5	0.0008	0.0128	0.1342	600.0	600.0	600.0	0	0	1	-60.0001403060998	60.0001403060998								
	4	14	0.0008	0.0129	0.1382	500.0	500.0	500.0	0	0	1	-60.0001403060998	60.0001403060998								
	5	6	0.0002	0.0026	0.0434	1200.0	1200.0	1200.0	0	0	1	-60.0001403060998	60.0001403060998								
	5	8	0.0008	0.0112	0.1476	900.0	900.0	900.0	0	0	1	-60.0001403060998	60.0001403060998								
	6	7	0.0006	0.0092	0.113	900.0	900.0	900.0	0	0	1	-60.0001403060998	60.0001403060998								
	6	11	0.0007	0.0082	0.1389	480.0	480.0	480.0	0	0	1	-60.0001403060998	60.0001403060998								
	6	31	0.0	0.025	0.0	1800.0	1800.0	1800.0	1.07	0.0	1	-60.0001403060998	60.0001403060998								
	7	8	0.0004	0.0046	0.078	900.0	900.0	900.0	0	0	1	-60.0001403060998	60.0001403060998								
	8	9	0.0023	0.0363	0.3804	900.0	900.0	900.0	0	0	1	-60.0001403060998	60.0001403060998								
	9	39	0.001	0.025	1.2	900.0	900.0	900.0	0	0	1	-60.0001403060998	60.0001403060998								
	10	11	0.0004	0.0043	0.0729	600.0	600.0	600.0	0	0	1	-60.0001403060998	60.0001403060998								
	10	13	0.0004	0.0043	0.0729	600.0	600.0	600.0	0	0	1	-60.0001403060998	60.0001403060998								
	10	32	0.0	0.02	0.0	900.0	900.0	2500.0	1.07	0.0	1	-60.0001403060998	60.0001403060998								
	12	11	0.0016	0.0435	0.0	500.0	500.0	500.0	1.006	0.0	1	-60.0001403060998	60.0001403060998								
	12	13	0.0016	0.0435	0.0	500.0	500.0	500.0	1.006	0.0	1	-60.0001403060998	60.0001403060998								
	13	14	0.0009	0.0101	0.1723	600.0	600.0	600.0	0	0	1	-60.0001403060998	60.0001403060998								
	14	15	0.0018	0.0217	0.366	600.0	600.0	600.0	0	0	1	-60.0001403060998	60.0001403060998								
	15	16	0.0009	0.0094	0.171	600.0	600.0	600.0	0	0	1	-60.0001403060998	60.0001403060998								
	16	17	0.0007	0.0089	0.1342	600.0	600.0	600.0	0	0	1	-60.0001403060998	60.0001403060998								
	16	19	0.0016	0.0195	0.304	600.0	600.0	2500.0	0	0	1	-60.0001403060998	60.0001403060998								
	16	21	0.0008	0.0135	0.2548	600.0	600.0	600.0	0	0	1	-60.0001403060998	60.0001403060998								
	16	24	0.0003	0.0059	0.068	600.0	600.0	600.0	0	0	1	-60.0001403060998	60.0001403060998								
	17	18	0.0007	0.0082	0.1319	600.0	600.0	600.0	0	0	1	-60.0001403060998	60.0001403060998								
	17	27	0.0013	0.0173	0.3216	600.0	600.0	600.0	0	0	1	-60.0001403060998	60.0001403060998								
	19	20	0.0007	0.0138	0.0	900.0	900.0	2500.0	1.06	0.0	1	-60.0001403060998	60.0001403060998								
	19	33	0.0007	0.0142	0.0	900.0	900.0	2500.0	1.07	0.0	1	-60.0001403060998	60.0001403060998								
	20	34	0.0009	0.018	0.0	900.0	900.0	2500.0	1.009	0.0	1	-60.0001403060998	60.0001403060998								
	21	22	0.0008	0.014	0.2565	900.0	900.0	900.0	0	0	1	-60.0001403060998	60.0001403060998								
	22	23	0.0006	0.0096	0.1846	600.0	600.0	600.0	0	0	1	-60.0001403060998	60.0001403060998								
	22	35	0.0	0.0143	0.0	900.0	900.0	2500.0	1.025	0.0	1	-60.0001403060998	60.0001403060998								
	23	24	0.0022	0.035	0.361	600.0	600.0	600.0	0	0	1	-60.0001403060998	60.0001403060998								
	23	36	0.0005	0.0272	0.0	900.0	900.0	2500.0	1.0	0.0	1	-60.0001403060998	60.0001403060998								
	25	26	0.0032	0.0323	0.531	600.0	600.0	600.0	0	0	1	-60.0001403060998	60.0001403060998								
	25	37	0.0006	0.0232	0.0	900.0	900.0	2500.0	1.025	0.0	1	-60.0001403060998	60.0001403060998								
	26	27	0.0014	0.0147	0.2396	600.0	600.0	600.0	0	0	1	-60.0001403060998	60.0001403060998								
	26	28	0.0043	0.0474	0.7802	600.0	600.0	600.0	0	0	1	-60.0001403060998	60.0001403060998								
	26	29	0.0057	0.0625	1.029	600.0	600.0	600.0	0	0	1	-60.0001403060998	60.0001403060998								
	28	29	0.0014	0.0151	0.249	600.0	600.0	600.0	0	0	1	-60.0001403060998	60.0001403060998								
	29	38	0.0008	0.0156	0.0	1200.0	1200.0	2500.0	1.025	0.0	1	-60.0001403060998	60.0001403060998								
];

%%-----  OPF Data  -----%%
%% cost data
%    1    startup    shutdown    n    x1    y1    ...    xn    yn
%    2    startup    shutdown    n    c(n-1)    ...    c0
mpc.gencost = [
	2	0.0	0.0	3	0.01	0.3	0.2
	2	0.0	0.0	3	0.01	0.3	0.2
	2	0.0	0.0	3	0.01	0.3	0.2
	2	0.0	0.0	3	0.01	0.3	0.2
	2	0.0	0.0	3	0.01	0.3	0.2
	2	0.0	0.0	3	0.01	0.3	0.2
	2	0.0	0.0	3	0.01	0.3	0.2
	2	0.0	0.0	3	0.01	0.3	0.2
	2	0.0	0.0	3	0.01	0.3	0.2
	2	0.0	0.0	3	0.01	0.3	0.2
];

%column_names% μ dst_id λvmax σ λvmin 
mpc.bus_data = {
	97.6	0	1.03643	0.0	1.03643
	0.0	0	1.03643	0.0	1.03643
	322.0	0	1.03643	0.0	1.03643
	500.0	0	1.03643	0.0	1.03643
	0.0	0	1.03643	0.0	1.03643
	0.0	0	1.03643	0.0	1.03643
	233.8	0	1.03643	0.0	1.03643
	522.0	0	1.03643	0.0	1.03643
	6.5	0	1.03643	0.0	1.03643
	0.0	0	1.03643	0.0	1.03643
	0.0	0	1.03643	0.0	1.03643
	8.53	0	1.03643	0.0	1.03643
	0.0	0	1.03643	0.0	1.03643
	0.0	0	1.03643	0.0	1.03643
	320.0	0	1.03643	0.0	1.03643
	329.0	0	1.03643	0.0	1.03643
	0.0	0	1.03643	0.0	1.03643
	158.0	0	1.03643	0.0	1.03643
	0.0	0	1.03643	0.0	1.03643
	680.0	0	1.03643	0.0	1.03643
	274.0	0	1.03643	0.0	1.03643
	0.0	0	1.03643	0.0	1.03643
	247.5	0	1.03643	0.0	1.03643
	308.6	0	1.03643	0.0	1.03643
	224.00000000000003	0	1.03643	0.0	1.03643
	139.0	0	1.03643	0.0	1.03643
	281.0	0	1.03643	0.0	1.03643
	206.0	0	1.03643	0.0	1.03643
	283.5	0	1.03643	0.0	1.03643
	0.0	0	1.03643	0.0	1.03643
	9.2	0	1.03643	0.0	1.03643
	0.0	0	1.03643	0.0	1.03643
	0.0	0	1.03643	0.0	1.03643
	0.0	0	1.03643	0.0	1.03643
	0.0	0	1.03643	0.0	1.03643
	0.0	0	1.03643	0.0	1.03643
	0.0	0	1.03643	0.0	1.03643
	0.0	0	1.03643	0.0	1.03643
	1104.0	0	1.03643	0.0	1.03643
};

%column_names% λqmax λpmax λpmin λqmin 
mpc.gen_data = {
	1.03643	1.03643	1.03643	1.03643
	1.03643	1.03643	1.03643	1.03643
	1.03643	1.03643	1.03643	1.03643
	1.03643	1.03643	1.03643	1.03643
	1.03643	1.03643	1.03643	1.03643
	1.03643	1.03643	1.03643	1.03643
	1.03643	1.03643	1.03643	1.03643
	1.03643	1.03643	1.03643	1.03643
	1.03643	1.03643	1.03643	1.03643
	1.03643	1.03643	1.03643	1.03643
};

%column_names% λcmax c_rating_a 
mpc.branch_data = {
	1.03643	600.0
	1.03643	1000.0
	1.03643	500.0
	1.03643	500.0
	1.03643	900.0
	1.03643	500.0
	1.03643	500.0
	1.03643	600.0
	1.03643	500.0
	1.03643	1200.0
	1.03643	900.0
	1.03643	900.0
	1.03643	480.0
	1.03643	1800.0
	1.03643	900.0
	1.03643	900.0
	1.03643	900.0
	1.03643	600.0
	1.03643	600.0
	1.03643	900.0
	1.03643	500.0
	1.03643	500.0
	1.03643	600.0
	1.03643	600.0
	1.03643	600.0
	1.03643	600.0
	1.03643	600.0
	1.03643	600.0
	1.03643	600.0
	1.03643	600.0
	1.03643	600.0
	1.03643	900.0
	1.03643	900.0
	1.03643	900.0
	1.03643	900.0
	1.03643	600.0
	1.03643	900.0
	1.03643	600.0
	1.03643	900.0
	1.03643	600.0
	1.03643	900.0
	1.03643	600.0
	1.03643	600.0
	1.03643	600.0
	1.03643	600.0
	1.03643	1200.0
};

mpc.dcpol = 2;

%column_names% dVdcset Vtar Pacmax filter reactor Vdcset Vmmax xtf Imax λvmax status Pdcset islcc LossA Qacmin rc rtf xc busdc_i busac_i tm type_dc Q_g LossB basekVac LossCrec droop Pacmin Qacmax type_ac Vmmin P_g transformer λvmin bf LossCinv 
mpc.convdc = {
	0	1	100	0	0	1.0079	1.1	0.01	1.1	1.03643	1	-58.6274	0	1.1033	-100	0.01	0.01	0.01	1	2	1	1	-40	0.887	345	2.885	0.005	-100	100	1	0.9	-60	0	1.03643	0.01	2.885
	0	1	100	0	0	1.0079	1.1	0.01	1.1	1.03643	1	-58.6274	0	1.1033	-100	0.01	0.01	0.01	2	9	1	1	-40	0.887	345	2.885	0.005	-100	100	1	0.9	-60	0	1.03643	0.01	2.885
	0	1	100	0	0	1.0079	1.1	0.01	1.1	1.03643	1	-58.6274	0	1.1033	-100	0.01	0.01	0.01	3	10	1	1	-40	0.887	345	2.885	0.005	-100	100	1	0.9	-60	0	1.03643	0.01	2.885
	0	1	100	0	0	1.0079	1.1	0.01	1.1	1.03643	1	-58.6274	0	1.1033	-100	0.01	0.01	0.01	4	18	1	1	-40	0.887	345	2.885	0.005	-100	100	1	0.9	-60	0	1.03643	0.01	2.885
	0	1	100	0	0	1.0079	1.1	0.01	1.1	1.03643	1	-58.6274	0	1.1033	-100	0.01	0.01	0.01	5	26	1	1	-40	0.887	345	2.885	0.005	-100	100	1	0.9	-60	0	1.03643	0.01	2.885
	0	1	100	0	0	1.0079	1.1	0.01	1.1	1.03643	1	-58.6274	0	1.1033	-100	0.01	0.01	0.01	6	29	1	1	-40	0.887	345	2.885	0.005	-100	100	1	0.9	-60	0	1.03643	0.01	2.885
	0	1	100	0	0	1.0079	1.1	0.01	1.1	1.03643	1	-58.6274	0	1.1033	-100	0.01	0.01	0.01	7	24	1	1	-40	0.887	345	2.885	0.005	-100	100	1	0.9	-60	0	1.03643	0.01	2.885
	0	1	100	0	0	1.0079	1.1	0.01	1.1	1.03643	1	-58.6274	0	1.1033	-100	0.01	0.01	0.01	8	14	1	1	-40	0.887	345	2.885	0.005	-100	100	1	0.9	-60	0	1.03643	0.01	2.885
	0	1	100	0	0	1.0079	1.1	0.01	1.1	1.03643	1	-58.6274	0	1.1033	-100	0.01	0.01	0.01	9	23	1	1	-40	0.887	345	2.885	0.005	-100	100	1	0.9	-60	0	1.03643	0.01	2.885
	0	1	100	0	0	1.0079	1.1	0.01	1.1	1.03643	1	-58.6274	0	1.1033	-100	0.01	0.01	0.01	10	13	1	1	-40	0.887	345	2.885	0.005	-100	100	1	0.9	-60	0	1.03643	0.01	2.885
};

%column_names% c r status λcmax rateB fbusdc rateA l rateC tbusdc 
mpc.branchdc = {
	0	0.01	1	1.03643	100	1	100	0	100	2
	0	0.01	1	1.03643	100	2	100	0	100	3
	0	0.01	1	1.03643	100	1	100	0	100	4
	0	0.01	1	1.03643	100	2	100	0	100	4
	0	0.01	1	1.03643	100	2	100	0	100	4
	0	0.01	1	1.03643	100	1	100	0	100	5
	0	0.01	1	1.03643	100	5	100	0	100	6
	0	0.01	1	1.03643	100	5	100	0	100	7
	0	0.01	1	1.03643	100	7	100	0	100	4
	0	0.01	1	1.03643	100	4	100	0	100	8
	0	0.01	1	1.03643	100	8	100	0	100	9
	0	0.01	1	1.03643	100	8	100	0	100	10
};

%column_names% Vdc λvmax Cdc basekVdc busdc_i grid λvmin Vdcmax Vdcmin Pdc 
mpc.busdc = {
	1	1.03643	0	345	1	1	1.03643	1.1	0.9	0
	1	1.03643	0	345	2	1	1.03643	1.1	0.9	0
	1	1.03643	0	345	3	1	1.03643	1.1	0.9	0
	1	1.03643	0	345	4	1	1.03643	1.1	0.9	0
	1	1.03643	0	345	5	1	1.03643	1.1	0.9	0
	1	1.03643	0	345	6	1	1.03643	1.1	0.9	0
	1	1.03643	0	345	7	1	1.03643	1.1	0.9	0
	1	1.03643	0	345	8	1	1.03643	1.1	0.9	0
	1	1.03643	0	345	9	1	1.03643	1.1	0.9	0
	1	1.03643	0	345	10	1	1.03643	1.1	0.9	0
};

